 INFO
nunit      1    1    1
unit   cell
celltype   convcell
shape   parapipedal
 END_INFO
 DIM-GROUP
           3           1
 PRIMVEC
    3.5847029450    0.0000000000    0.0000000000
    0.0000000000    3.5847029450    0.0000000000
    0.0000000000    0.0000000000    3.5847029450
 CONVVEC
    3.5847029450    0.0000000000    0.0000000000
    0.0000000000    3.5847029450    0.0000000000
    0.0000000000    0.0000000000    3.5847029450
 PRIMCOORD
           4           1
 29      0.0000000000     0.0000000000     0.0000000000     0.0000000000     0.0000000000     0.0000000000
 29      0.0000000000     1.7923514730     1.7923514730     0.0000000000     0.0000000000     0.0000000000
 29      1.7923514730     0.0000000000     1.7923514730     0.0000000000     0.0000000000     0.0000000000
 29      1.7923514730     1.7923514730     0.0000000000     0.0000000000     0.0000000000     0.0000000000
 CONVCOORD
           4           1
 29      0.0000000000     0.0000000000     0.0000000000
 29      0.0000000000     1.7923514730     1.7923514730
 29      1.7923514730     0.0000000000     1.7923514730
 29      1.7923514730     1.7923514730     0.0000000000
 RECIP-PRIMVEC
    0.2789631429    0.0000000000    0.0000000000

    0.0000000000    0.2789631429    0.0000000000

    0.0000000000    0.0000000000    0.2789631429

 RECIP-CONVVEC
    0.2789631429    0.0000000000    0.0000000000

    0.0000000000    0.2789631429    0.0000000000

    0.0000000000    0.0000000000    0.2789631429

 WIGNER-SEITZ-PRIMCELL
           4
 -0.1792351E+01 -0.1792351E+01  0.1792351E+01  -0.1000000E+01  0.0000000E+00  0.0000000E+00
 -0.1792351E+01  0.1792351E+01  0.1792351E+01  -0.1000000E+01  0.0000000E+00  0.0000000E+00
 -0.1792351E+01  0.1792351E+01 -0.1792351E+01  -0.1000000E+01  0.0000000E+00  0.0000000E+00
 -0.1792351E+01 -0.1792351E+01 -0.1792351E+01  -0.1000000E+01  0.0000000E+00  0.0000000E+00
           4
 -0.1792351E+01 -0.1792351E+01 -0.1792351E+01  -0.0000000E+00 -0.1000000E+01 -0.0000000E+00
  0.1792351E+01 -0.1792351E+01 -0.1792351E+01  -0.0000000E+00 -0.1000000E+01 -0.0000000E+00
  0.1792351E+01 -0.1792351E+01  0.1792351E+01  -0.0000000E+00 -0.1000000E+01 -0.0000000E+00
 -0.1792351E+01 -0.1792351E+01  0.1792351E+01  -0.0000000E+00 -0.1000000E+01 -0.0000000E+00
           4
 -0.1792351E+01  0.1792351E+01 -0.1792351E+01   0.0000000E+00  0.0000000E+00 -0.1000000E+01
  0.1792351E+01  0.1792351E+01 -0.1792351E+01   0.0000000E+00  0.0000000E+00 -0.1000000E+01
  0.1792351E+01 -0.1792351E+01 -0.1792351E+01   0.0000000E+00  0.0000000E+00 -0.1000000E+01
 -0.1792351E+01 -0.1792351E+01 -0.1792351E+01   0.0000000E+00  0.0000000E+00 -0.1000000E+01
           4
 -0.1792351E+01 -0.1792351E+01  0.1792351E+01  -0.0000000E+00 -0.0000000E+00  0.1000000E+01
  0.1792351E+01 -0.1792351E+01  0.1792351E+01  -0.0000000E+00 -0.0000000E+00  0.1000000E+01
  0.1792351E+01  0.1792351E+01  0.1792351E+01  -0.0000000E+00 -0.0000000E+00  0.1000000E+01
 -0.1792351E+01  0.1792351E+01  0.1792351E+01  -0.0000000E+00 -0.0000000E+00  0.1000000E+01
           4
 -0.1792351E+01  0.1792351E+01  0.1792351E+01   0.0000000E+00  0.1000000E+01  0.0000000E+00
  0.1792351E+01  0.1792351E+01  0.1792351E+01   0.0000000E+00  0.1000000E+01  0.0000000E+00
  0.1792351E+01  0.1792351E+01 -0.1792351E+01   0.0000000E+00  0.1000000E+01  0.0000000E+00
 -0.1792351E+01  0.1792351E+01 -0.1792351E+01   0.0000000E+00  0.1000000E+01  0.0000000E+00
           4
  0.1792351E+01 -0.1792351E+01 -0.1792351E+01   0.1000000E+01 -0.0000000E+00 -0.0000000E+00
  0.1792351E+01  0.1792351E+01 -0.1792351E+01   0.1000000E+01 -0.0000000E+00 -0.0000000E+00
  0.1792351E+01  0.1792351E+01  0.1792351E+01   0.1000000E+01 -0.0000000E+00 -0.0000000E+00
  0.1792351E+01 -0.1792351E+01  0.1792351E+01   0.1000000E+01 -0.0000000E+00 -0.0000000E+00
 WIGNER-SEITZ-PRIMCELL_END
 WIGNER-SEITZ-CONVCELL
           4
 -0.1792351E+01 -0.1792351E+01  0.1792351E+01  -0.1000000E+01  0.0000000E+00  0.0000000E+00
 -0.1792351E+01  0.1792351E+01  0.1792351E+01  -0.1000000E+01  0.0000000E+00  0.0000000E+00
 -0.1792351E+01  0.1792351E+01 -0.1792351E+01  -0.1000000E+01  0.0000000E+00  0.0000000E+00
 -0.1792351E+01 -0.1792351E+01 -0.1792351E+01  -0.1000000E+01  0.0000000E+00  0.0000000E+00
           4
 -0.1792351E+01 -0.1792351E+01 -0.1792351E+01  -0.0000000E+00 -0.1000000E+01 -0.0000000E+00
  0.1792351E+01 -0.1792351E+01 -0.1792351E+01  -0.0000000E+00 -0.1000000E+01 -0.0000000E+00
  0.1792351E+01 -0.1792351E+01  0.1792351E+01  -0.0000000E+00 -0.1000000E+01 -0.0000000E+00
 -0.1792351E+01 -0.1792351E+01  0.1792351E+01  -0.0000000E+00 -0.1000000E+01 -0.0000000E+00
           4
 -0.1792351E+01  0.1792351E+01 -0.1792351E+01   0.0000000E+00  0.0000000E+00 -0.1000000E+01
  0.1792351E+01  0.1792351E+01 -0.1792351E+01   0.0000000E+00  0.0000000E+00 -0.1000000E+01
  0.1792351E+01 -0.1792351E+01 -0.1792351E+01   0.0000000E+00  0.0000000E+00 -0.1000000E+01
 -0.1792351E+01 -0.1792351E+01 -0.1792351E+01   0.0000000E+00  0.0000000E+00 -0.1000000E+01
           4
 -0.1792351E+01 -0.1792351E+01  0.1792351E+01  -0.0000000E+00 -0.0000000E+00  0.1000000E+01
  0.1792351E+01 -0.1792351E+01  0.1792351E+01  -0.0000000E+00 -0.0000000E+00  0.1000000E+01
  0.1792351E+01  0.1792351E+01  0.1792351E+01  -0.0000000E+00 -0.0000000E+00  0.1000000E+01
 -0.1792351E+01  0.1792351E+01  0.1792351E+01  -0.0000000E+00 -0.0000000E+00  0.1000000E+01
           4
 -0.1792351E+01  0.1792351E+01  0.1792351E+01   0.0000000E+00  0.1000000E+01  0.0000000E+00
  0.1792351E+01  0.1792351E+01  0.1792351E+01   0.0000000E+00  0.1000000E+01  0.0000000E+00
  0.1792351E+01  0.1792351E+01 -0.1792351E+01   0.0000000E+00  0.1000000E+01  0.0000000E+00
 -0.1792351E+01  0.1792351E+01 -0.1792351E+01   0.0000000E+00  0.1000000E+01  0.0000000E+00
           4
  0.1792351E+01 -0.1792351E+01 -0.1792351E+01   0.1000000E+01 -0.0000000E+00 -0.0000000E+00
  0.1792351E+01  0.1792351E+01 -0.1792351E+01   0.1000000E+01 -0.0000000E+00 -0.0000000E+00
  0.1792351E+01  0.1792351E+01  0.1792351E+01   0.1000000E+01 -0.0000000E+00 -0.0000000E+00
  0.1792351E+01 -0.1792351E+01  0.1792351E+01   0.1000000E+01 -0.0000000E+00 -0.0000000E+00
 WIGNER-SEITZ-CONVCELL_END
 BRILLOUIN-ZONE-PRIMCELL
           4
 -0.1394816E+00 -0.1394816E+00  0.1394816E+00  -0.1000000E+01 -0.9949549E-16  0.9949549E-16
 -0.1394816E+00  0.1394816E+00  0.1394816E+00  -0.1000000E+01 -0.9949549E-16  0.9949549E-16
 -0.1394816E+00  0.1394816E+00 -0.1394816E+00  -0.1000000E+01 -0.9949549E-16  0.9949549E-16
 -0.1394816E+00 -0.1394816E+00 -0.1394816E+00  -0.1000000E+01 -0.9949549E-16  0.9949549E-16
           4
 -0.1394816E+00 -0.1394816E+00 -0.1394816E+00  -0.0000000E+00 -0.1000000E+01 -0.4974775E-16
  0.1394816E+00 -0.1394816E+00 -0.1394816E+00  -0.0000000E+00 -0.1000000E+01 -0.4974775E-16
  0.1394816E+00 -0.1394816E+00  0.1394816E+00  -0.0000000E+00 -0.1000000E+01 -0.4974775E-16
 -0.1394816E+00 -0.1394816E+00  0.1394816E+00  -0.0000000E+00 -0.1000000E+01 -0.4974775E-16
           4
 -0.1394816E+00  0.1394816E+00 -0.1394816E+00   0.8916545E-16 -0.3941770E-16 -0.1000000E+01
  0.1394816E+00  0.1394816E+00 -0.1394816E+00   0.8916545E-16 -0.3941770E-16 -0.1000000E+01
  0.1394816E+00 -0.1394816E+00 -0.1394816E+00   0.8916545E-16 -0.3941770E-16 -0.1000000E+01
 -0.1394816E+00 -0.1394816E+00 -0.1394816E+00   0.8916545E-16 -0.3941770E-16 -0.1000000E+01
           4
  0.1394816E+00 -0.1394816E+00  0.1394816E+00  -0.1492432E-15 -0.8916545E-16  0.1000000E+01
  0.1394816E+00  0.1394816E+00  0.1394816E+00  -0.1492432E-15 -0.8916545E-16  0.1000000E+01
 -0.1394816E+00  0.1394816E+00  0.1394816E+00  -0.1492432E-15 -0.8916545E-16  0.1000000E+01
 -0.1394816E+00 -0.1394816E+00  0.1394816E+00  -0.1492432E-15 -0.8916545E-16  0.1000000E+01
           4
 -0.1394816E+00  0.1394816E+00  0.1394816E+00   0.0000000E+00  0.1000000E+01 -0.1033005E-16
  0.1394816E+00  0.1394816E+00  0.1394816E+00   0.0000000E+00  0.1000000E+01 -0.1033005E-16
  0.1394816E+00  0.1394816E+00 -0.1394816E+00   0.0000000E+00  0.1000000E+01 -0.1033005E-16
 -0.1394816E+00  0.1394816E+00 -0.1394816E+00   0.0000000E+00  0.1000000E+01 -0.1033005E-16
           4
  0.1394816E+00 -0.1394816E+00  0.1394816E+00   0.1000000E+01 -0.9949549E-16 -0.9949549E-16
  0.1394816E+00 -0.1394816E+00 -0.1394816E+00   0.1000000E+01 -0.9949549E-16 -0.9949549E-16
  0.1394816E+00  0.1394816E+00 -0.1394816E+00   0.1000000E+01 -0.9949549E-16 -0.9949549E-16
  0.1394816E+00  0.1394816E+00  0.1394816E+00   0.1000000E+01 -0.9949549E-16 -0.9949549E-16
 BRILLOUIN-ZONE-PRIMCELL_END
 BRILLOUIN-ZONE-CONVCELL
           4
 -0.1394816E+00 -0.1394816E+00  0.1394816E+00  -0.1000000E+01 -0.9949549E-16  0.9949549E-16
 -0.1394816E+00  0.1394816E+00  0.1394816E+00  -0.1000000E+01 -0.9949549E-16  0.9949549E-16
 -0.1394816E+00  0.1394816E+00 -0.1394816E+00  -0.1000000E+01 -0.9949549E-16  0.9949549E-16
 -0.1394816E+00 -0.1394816E+00 -0.1394816E+00  -0.1000000E+01 -0.9949549E-16  0.9949549E-16
           4
 -0.1394816E+00 -0.1394816E+00 -0.1394816E+00  -0.0000000E+00 -0.1000000E+01 -0.4974775E-16
  0.1394816E+00 -0.1394816E+00 -0.1394816E+00  -0.0000000E+00 -0.1000000E+01 -0.4974775E-16
  0.1394816E+00 -0.1394816E+00  0.1394816E+00  -0.0000000E+00 -0.1000000E+01 -0.4974775E-16
 -0.1394816E+00 -0.1394816E+00  0.1394816E+00  -0.0000000E+00 -0.1000000E+01 -0.4974775E-16
           4
 -0.1394816E+00  0.1394816E+00 -0.1394816E+00   0.8916545E-16 -0.3941770E-16 -0.1000000E+01
  0.1394816E+00  0.1394816E+00 -0.1394816E+00   0.8916545E-16 -0.3941770E-16 -0.1000000E+01
  0.1394816E+00 -0.1394816E+00 -0.1394816E+00   0.8916545E-16 -0.3941770E-16 -0.1000000E+01
 -0.1394816E+00 -0.1394816E+00 -0.1394816E+00   0.8916545E-16 -0.3941770E-16 -0.1000000E+01
           4
  0.1394816E+00 -0.1394816E+00  0.1394816E+00  -0.1492432E-15 -0.8916545E-16  0.1000000E+01
  0.1394816E+00  0.1394816E+00  0.1394816E+00  -0.1492432E-15 -0.8916545E-16  0.1000000E+01
 -0.1394816E+00  0.1394816E+00  0.1394816E+00  -0.1492432E-15 -0.8916545E-16  0.1000000E+01
 -0.1394816E+00 -0.1394816E+00  0.1394816E+00  -0.1492432E-15 -0.8916545E-16  0.1000000E+01
           4
 -0.1394816E+00  0.1394816E+00  0.1394816E+00   0.0000000E+00  0.1000000E+01 -0.1033005E-16
  0.1394816E+00  0.1394816E+00  0.1394816E+00   0.0000000E+00  0.1000000E+01 -0.1033005E-16
  0.1394816E+00  0.1394816E+00 -0.1394816E+00   0.0000000E+00  0.1000000E+01 -0.1033005E-16
 -0.1394816E+00  0.1394816E+00 -0.1394816E+00   0.0000000E+00  0.1000000E+01 -0.1033005E-16
           4
  0.1394816E+00 -0.1394816E+00  0.1394816E+00   0.1000000E+01 -0.9949549E-16 -0.9949549E-16
  0.1394816E+00 -0.1394816E+00 -0.1394816E+00   0.1000000E+01 -0.9949549E-16 -0.9949549E-16
  0.1394816E+00  0.1394816E+00 -0.1394816E+00   0.1000000E+01 -0.9949549E-16 -0.9949549E-16
  0.1394816E+00  0.1394816E+00  0.1394816E+00   0.1000000E+01 -0.9949549E-16 -0.9949549E-16
 BRILLOUIN-ZONE-CONVCELL_END
 ATOMS
   29    0.0000000000    0.0000000000    0.0000000000    0.0000000000    0.0000000000    0.0000000000
   29    0.0000000000    1.7923514730    1.7923514730    0.0000000000    0.0000000000    0.0000000000
   29    1.7923514730    0.0000000000    1.7923514730    0.0000000000    0.0000000000    0.0000000000
   29    1.7923514730    1.7923514730    0.0000000000    0.0000000000    0.0000000000    0.0000000000
   29    0.0000000000    0.0000000000    3.5847029450    0.0000000000    0.0000000000    0.0000000000
   29    1.7923514730    1.7923514730    3.5847029450    0.0000000000    0.0000000000    0.0000000000
   29    0.0000000000    3.5847029450    0.0000000000    0.0000000000    0.0000000000    0.0000000000
   29    1.7923514730    3.5847029450    1.7923514730    0.0000000000    0.0000000000    0.0000000000
   29    0.0000000000    3.5847029450    3.5847029450    0.0000000000    0.0000000000    0.0000000000
   29    3.5847029450    0.0000000000    0.0000000000    0.0000000000    0.0000000000    0.0000000000
   29    3.5847029450    1.7923514730    1.7923514730    0.0000000000    0.0000000000    0.0000000000
   29    3.5847029450    0.0000000000    3.5847029450    0.0000000000    0.0000000000    0.0000000000
   29    3.5847029450    3.5847029450    0.0000000000    0.0000000000    0.0000000000    0.0000000000
   29    3.5847029450    3.5847029450    3.5847029450    0.0000000000    0.0000000000    0.0000000000
 FRAMES
1      0.0000000000    0.0000000000    0.0000000000      3.5847029450    0.0000000000    0.0000000000
1      0.0000000000    0.0000000000    0.0000000000      0.0000000000    3.5847029450    0.0000000000
1      0.0000000000    0.0000000000    0.0000000000      0.0000000000    0.0000000000    3.5847029450
1      0.0000000000    0.0000000000    3.5847029450      3.5847029450    0.0000000000    3.5847029450
1      0.0000000000    0.0000000000    3.5847029450      0.0000000000    3.5847029450    3.5847029450
1      0.0000000000    3.5847029450    0.0000000000      3.5847029450    3.5847029450    0.0000000000
1      0.0000000000    3.5847029450    0.0000000000      0.0000000000    3.5847029450    3.5847029450
1      0.0000000000    3.5847029450    3.5847029450      3.5847029450    3.5847029450    3.5847029450
1      3.5847029450    0.0000000000    0.0000000000      3.5847029450    3.5847029450    0.0000000000
1      3.5847029450    0.0000000000    0.0000000000      3.5847029450    0.0000000000    3.5847029450
1      3.5847029450    0.0000000000    3.5847029450      3.5847029450    3.5847029450    3.5847029450
1      3.5847029450    3.5847029450    0.0000000000      3.5847029450    3.5847029450    3.5847029450
